Var @default = 0.0
New Line.001 phases=3 bus1=002 bus2=047564 length=0.292 linecode=aerial_95mm
New Line.82876 phases=3 bus1=225875 bus2=107558 length=0.007 linecode=underground_95mm
New Line.175750 phases=3 bus1=107558 bus2=255258 length=0.073 linecode=underground_95mm
New Line.208730 phases=3 bus1=255258 bus2=269172 length=0.098 linecode=underground_95mm
New Line.218585 phases=3 bus1=269172 bus2=126563 length=0.046 linecode=underground_25mm
New Line.173300 phases=3 bus1=269172 bus2=126858 length=0.021 linecode=underground_25mm
New Line.200683 phases=3 bus1=269172 bus2=130108 length=0.01 linecode=underground_25mm
New Line.182107 phases=3 bus1=269172 bus2=134391 length=0.046 linecode=underground_50mm
New Line.211405 phases=3 bus1=134391 bus2=126468 length=0.021 linecode=underground_25mm
New Line.186475 phases=3 bus1=255258 bus2=121635 length=0.035 linecode=underground_16mm
New Line.199125 phases=3 bus1=255258 bus2=123728 length=0.105 linecode=underground_50mm
New Line.35257 phases=3 bus1=123728 bus2=290164 length=0.152 linecode=aerial_70mm
New Line.198506 phases=3 bus1=290164 bus2=290163 length=0.043 linecode=underground_50mm
New Line.34289 phases=3 bus1=290163 bus2=290165 length=0.292 linecode=aerial_70mm
New Line.182873 phases=3 bus1=290165 bus2=109211 length=0.106 linecode=underground_25mm
New Line.31654 phases=3 bus1=290165 bus2=122202 length=0.026 linecode=aerial_35mm
New Line.191817 phases=3 bus1=122202 bus2=111795 length=0.002 linecode=underground_16mm
New Line.36202 phases=3 bus1=122202 bus2=122178 length=0.045 linecode=aerial_35mm
New Line.39330 phases=3 bus1=122178 bus2=123004 length=0.185 linecode=aerial_50mm
New Line.39360 phases=3 bus1=123004 bus2=123775 length=0.107 linecode=aerial_50mm
New Line.32579 phases=3 bus1=123004 bus2=114154 length=0.023 linecode=aerial_35mm
New Line.39359 phases=3 bus1=123775 bus2=121117 length=0.044 linecode=aerial_50mm
New Line.202391 phases=3 bus1=121117 bus2=116757 length=0.08 linecode=underground_25mm
New Line.188494 phases=3 bus1=123775 bus2=143324 length=0.012 linecode=underground_16mm
New Line.205713 phases=3 bus1=143324 bus2=126674 length=0.001 linecode=underground_16mm
New Line.208731 phases=3 bus1=114154 bus2=117766 length=0.008 linecode=underground_25mm
New Line.170613 phases=3 bus1=114154 bus2=107756 length=0.272 linecode=underground_25mm
